*Heading
** Job name: proj_mesh6_90 Model name: Model-1
** Generated by: Abaqus/CAE 2023
*Preprint, echo=NO, model=NO, history=NO, contact=NO
**
** PARTS
**
*Part, name=Part-1
*Node
      1,           0.,           0.
      2,       0.0625,           0.
      3,        0.125,           0.
      4,       0.1875,           0.
      5,         0.25,           0.
      6,       0.3125,           0.
      7,        0.375,           0.
      8,       0.4375,           0.
      9,          0.5,           0.
     10,       0.5625,           0.
     11,        0.625,           0.
     12,       0.6875,           0.
     13,         0.75,           0.
     14,       0.8125,           0.
     15,        0.875,           0.
     16,       0.9375,           0.
     17,           1.,           0.
     18,       1.0625,           0.
     19,        1.125,           0.
     20,       1.1875,           0.
** ... 15725 like lines cut
*Element, type=CPS8
   1,     1,     2,    35,    34,  5314,  5315,  5316,  5317
   2,     2,     3,    36,    35,  5318,  5319,  5320,  5315
   3,     3,     4,    37,    36,  5321,  5322,  5323,  5319
   4,     4,     5,    38,    37,  5324,  5325,  5326,  5322
   5,     5,     6,    39,    38,  5327,  5328,  5329,  5325
   6,     6,     7,    40,    39,  5330,  5331,  5332,  5328
   7,     7,     8,    41,    40,  5333,  5334,  5335,  5331
   8,     8,     9,    42,    41,  5336,  5337,  5338,  5334
   9,     9,    10,    43,    42,  5339,  5340,  5341,  5337
  10,    10,    11,    44,    43,  5342,  5343,  5344,  5340
  11,    11,    12,    45,    44,  5345,  5346,  5347,  5343
  12,    12,    13,    46,    45,  5348,  5349,  5350,  5346
  13,    13,    14,    47,    46,  5351,  5352,  5353,  5349
  14,    14,    15,    48,    47,  5354,  5355,  5356,  5352
  15,    15,    16,    49,    48,  5357,  5358,  5359,  5355
  16,    16,    17,    50,    49,  5360,  5361,  5362,  5358
  17,    17,    18,    51,    50,  5363,  5364,  5365,  5361
  18,    18,    19,    52,    51,  5366,  5367,  5368,  5364
  19,    19,    20,    53,    52,  5369,  5370,  5371,  5367
  20,    20,    21,    54,    53,  5372,  5373,  5374,  5370
** ... 5100 like lines cut
*Nset, nset=all, generate
     1,  15745,      1
*Elset, elset=all, generate
    1,  5120,     1
*Nset, nset=gage
  1057,  1058,  1059,  1060,  1061,  1062,  1063,  1064,  1065,  1066,  1067,  1068,  1069,  1070,  1071,  1072
  1073,  1074,  1075,  1076,  1077,  1078,  1079,  1080,  1081,  1082,  1083,  1084,  1085,  1086,  1087,  1088
  1089,  1090,  1091,  1092,  1093,  1094,  1095,  1096,  1097,  1098,  1099,  1100,  1101,  1102,  1103,  1104
  1105,  1106,  1107,  1108,  1109,  1110,  1111,  1112,  1113,  1114,  1115,  1116,  1117,  1118,  1119,  1120
  1121,  1122,  1123,  1124,  1125,  1126,  1127,  1128,  1129,  1130,  1131,  1132,  1133,  1134,  1135,  1136
  1137,  1138,  1139,  1140,  1141,  1142,  1143,  1144,  1145,  1146,  1147,  1148,  1149,  1150,  1151,  1152
  1153,  1154,  1155,  1156,  1157,  1158,  1159,  1160,  1161,  1162,  1163,  1164,  1165,  1166,  1167,  1168
  1169,  1170,  1171,  1172,  1173,  1174,  1175,  1176,  1177,  1178,  1179,  1180,  1181,  1182,  1183,  1184
  1185,  1186,  1187,  1188,  1189,  1190,  1191,  1192,  1193,  1194,  1195,  1196,  1197,  1198,  1199,  1200
  1201,  1202,  1203,  1204,  1205,  1206,  1207,  1208,  1209,  1210,  1211,  1212,  1213,  1214,  1215,  1216
  1217,  1218,  1219,  1220,  1221,  1222,  1223,  1224,  1225,  1226,  1227,  1228,  1229,  1230,  1231,  1232
  1233,  1234,  1235,  1236,  1237,  1238,  1239,  1240,  1241,  1242,  1243,  1244,  1245,  1246,  1247,  1248
  1249,  1250,  1251,  1252,  1253,  1254,  1255,  1256,  1257,  1258,  1259,  1260,  1261,  1262,  1263,  1264
  1265,  1266,  1267,  1268,  1269,  1270,  1271,  1272,  1273,  1274,  1275,  1276,  1277,  1278,  1279,  1280
  1281,  1282,  1283,  1284,  1285,  1286,  1287,  1288,  1289,  1290,  1291,  1292,  1293,  1294,  1295,  1296
  1297,  1298,  1299,  1300,  1301,  1302,  1303,  1304,  1305,  1306,  1307,  1308,  1309,  1310,  1311,  1312
  1313,  1314,  1315,  1316,  1317,  1318,  1319,  1320,  1321,  1322,  1323,  1324,  1325,  1326,  1327,  1328
  1329,  1330,  1331,  1332,  1333,  1334,  1335,  1336,  1337,  1338,  1339,  1340,  1341,  1342,  1343,  1344
  1345,  1346,  1347,  1348,  1349,  1350,  1351,  1352,  1353,  1354,  1355,  1356,  1357,  1358,  1359,  1360
  1361,  1362,  1363,  1364,  1365,  1366,  1367,  1368,  1369,  1370,  1371,  1372,  1373,  1374,  1375,  1376
** ... 573 like lines cut
*Orientation, name=Ori-30
1., 0., 0., 0., 1., 0.
3, 90.
** Section: Section-1
*Solid Section, elset=all, orientation=Ori-30, material=Material-1
0.001,
*End Part
**  
**
** ASSEMBLY
**
*Assembly, name=Assembly
**  
*Instance, name=Part-1-1, part=Part-1
*End Instance
**  
*Nset, nset=bottom, instance=Part-1-1
    1,    2,    3,    4,    5,    6,    7,    8,    9,   10,   11,   12,   13,   14,   15,   16
   17,   18,   19,   20,   21,   22,   23,   24,   25,   26,   27,   28,   29,   30,   31,   32
   33, 5314, 5318, 5321, 5324, 5327, 5330, 5333, 5336, 5339, 5342, 5345, 5348, 5351, 5354, 5357
 5360, 5363, 5366, 5369, 5372, 5375, 5378, 5381, 5384, 5387, 5390, 5393, 5396, 5399, 5402, 5405
 5408,
*Elset, elset=bottom, instance=Part-1-1, generate
  1,  32,   1
*Nset, nset=top, instance=Part-1-1
  5281,  5282,  5283,  5284,  5285,  5286,  5287,  5288,  5289,  5290,  5291,  5292,  5293,  5294,  5295,  5296
  5297,  5298,  5299,  5300,  5301,  5302,  5303,  5304,  5305,  5306,  5307,  5308,  5309,  5310,  5311,  5312
  5313, 15682, 15685, 15687, 15689, 15691, 15693, 15695, 15697, 15699, 15701, 15703, 15705, 15707, 15709, 15711
 15713, 15715, 15717, 15719, 15721, 15723, 15725, 15727, 15729, 15731, 15733, 15735, 15737, 15739, 15741, 15743
 15745,
*Elset, elset=top, instance=Part-1-1, generate
 5089,  5120,     1
*End Assembly
** 
** MATERIALS
** 
*Material, name=Material-1
*Elastic, type=ENGINEERING CONSTANTS
 0.21,   0.21, 15000.,  5800., 15000.,231000.,    0.3, 15800.
 15800.,
** 
** BOUNDARY CONDITIONS
** 
** Name: BC-1 Type: Displacement/Rotation
*Boundary
top, 1, 1
top, 2, 2
** Name: BC-2 Type: Displacement/Rotation
*Boundary
bottom, 1, 1
bottom, 2, 2
** ----------------------------------------------------------------
** 
** STEP: Step-1
** 
*Step, name=Step-1, nlgeom=NO
*Static
1., 1., 1e-05, 1.
** 
** BOUNDARY CONDITIONS
** 
** Name: BC-3 Type: Displacement/Rotation
*Boundary
top, 2, 2, 0.1
** 
** OUTPUT REQUESTS
** 
*Restart, write, frequency=0
** 
** FIELD OUTPUT: F-Output-1
** 
*Output, field, variable=PRESELECT
** 
** HISTORY OUTPUT: H-Output-1
** 
*Output, history, variable=PRESELECT
*End Step
