*Heading
** Job name: proj_mesh3_30 Model name: Model-1
** Generated by: Abaqus/CAE 2023
*Preprint, echo=NO, model=NO, history=NO, contact=NO
**
** PARTS
**
*Part, name=Part-1
*Node
      1,           0.,           0.
      2,          0.5,           0.
      3,           1.,           0.
      4,          1.5,           0.
      5,           2.,           0.
      6,           0.,          0.5
      7,          0.5,          0.5
      8,           1.,          0.5
      9,          1.5,          0.5
     10,           2.,          0.5
     11,           0.,           1.
     12,          0.5,           1.
     13,           1.,           1.
     14,          1.5,           1.
     15,           2.,           1.
     16,           0.,          1.5
     17,          0.5,          1.5
     18,           1.,          1.5
     19,          1.5,          1.5
     20,           2.,          1.5
** ... 85 like lines cut
*Element, type=CPS4
 1,   1,   2,   7,   6
 2,   2,   3,   8,   7
 3,   3,   4,   9,   8
 4,   4,   5,  10,   9
 5,   6,   7,  12,  11
 6,   7,   8,  13,  12
 7,   8,   9,  14,  13
 8,   9,  10,  15,  14
 9,  11,  12,  17,  16
10,  12,  13,  18,  17
11,  13,  14,  19,  18
12,  14,  15,  20,  19
13,  16,  17,  22,  21
14,  17,  18,  23,  22
15,  18,  19,  24,  23
16,  19,  20,  25,  24
17,  21,  22,  27,  26
18,  22,  23,  28,  27
19,  23,  24,  29,  28
20,  24,  25,  30,  29
** ... 60 like lines cut
*Nset, nset=all, generate
   1,  105,    1
*Elset, elset=all, generate
  1,  80,   1
*Elset, elset=gage, generate
 17,  64,   1
*Orientation, name=Ori-12
1., 0., 0., 0., 1., 0.
3, 30.
** Section: Section-1
*Solid Section, elset=all, orientation=Ori-12, material=Material-1
0.001,
*End Part
**  
**
** ASSEMBLY
**
*Assembly, name=Assembly
**  
*Instance, name=Part-1-1, part=Part-1
*End Instance
**  
*Nset, nset=bottom, instance=Part-1-1, generate
 1,  5,  1
*Elset, elset=bottom, instance=Part-1-1, generate
 1,  4,  1
*Nset, nset=top, instance=Part-1-1, generate
 101,  105,    1
*Elset, elset=top, instance=Part-1-1, generate
 77,  80,   1
*End Assembly
** 
** MATERIALS
** 
*Material, name=Material-1
*Elastic, type=ENGINEERING CONSTANTS
231000.,15000.,15000.,  0.21,  0.21,   0.3,15800.,15800.
 5800.,
** 
** BOUNDARY CONDITIONS
** 
** Name: BC-1 Type: Displacement/Rotation
*Boundary
top, 1, 1
top, 2, 2
** Name: BC-2 Type: Displacement/Rotation
*Boundary
bottom, 1, 1
bottom, 2, 2
** ----------------------------------------------------------------
** 
** STEP: Step-1
** 
*Step, name=Step-1, nlgeom=NO
*Static
1., 1., 1e-05, 1.
** 
** BOUNDARY CONDITIONS
** 
** Name: BC-3 Type: Displacement/Rotation
*Boundary
top, 2, 2, 0.1
** 
** OUTPUT REQUESTS
** 
*Restart, write, frequency=0
** 
** FIELD OUTPUT: F-Output-1
** 
*Output, field, variable=PRESELECT
** 
** HISTORY OUTPUT: H-Output-1
** 
*Output, history, variable=PRESELECT
*End Step
