*Heading
** Job name: proj_mesh6_90 Model name: Model-1
** Generated by: Abaqus/CAE 2023
*Preprint, echo=NO, model=NO, history=NO, contact=NO
**
** PARTS
**
*Part, name=Part-1
*Node
      1,           0.,           0.
      2,       0.0625,           0.
      3,        0.125,           0.
      4,       0.1875,           0.
      5,         0.25,           0.
      6,       0.3125,           0.
      7,        0.375,           0.
      8,       0.4375,           0.
      9,          0.5,           0.
     10,       0.5625,           0.
     11,        0.625,           0.
     12,       0.6875,           0.
     13,         0.75,           0.
     14,       0.8125,           0.
     15,        0.875,           0.
     16,       0.9375,           0.
     17,           1.,           0.
     18,       1.0625,           0.
     19,        1.125,           0.
     20,       1.1875,           0.
** ... 5293 like lines cut
*Element, type=CPS4
   1,    1,    2,   35,   34
   2,    2,    3,   36,   35
   3,    3,    4,   37,   36
   4,    4,    5,   38,   37
   5,    5,    6,   39,   38
   6,    6,    7,   40,   39
   7,    7,    8,   41,   40
   8,    8,    9,   42,   41
   9,    9,   10,   43,   42
  10,   10,   11,   44,   43
  11,   11,   12,   45,   44
  12,   12,   13,   46,   45
  13,   13,   14,   47,   46
  14,   14,   15,   48,   47
  15,   15,   16,   49,   48
  16,   16,   17,   50,   49
  17,   17,   18,   51,   50
  18,   18,   19,   52,   51
  19,   19,   20,   53,   52
  20,   20,   21,   54,   53
** ... 5100 like lines cut
*Nset, nset=all, generate
    1,  5313,     1
*Elset, elset=all, generate
    1,  5120,     1
*Elset, elset=gage, generate
 1025,  4096,     1
*Orientation, name=Ori-30
1., 0., 0., 0., 1., 0.
3, 90.
** Section: Section-1
*Solid Section, elset=all, orientation=Ori-30, material=Material-1
0.001,
*End Part
**  
**
** ASSEMBLY
**
*Assembly, name=Assembly
**  
*Instance, name=Part-1-1, part=Part-1
*End Instance
**  
*Nset, nset=bottom, instance=Part-1-1, generate
  1,  33,   1
*Elset, elset=bottom, instance=Part-1-1, generate
  1,  32,   1
*Nset, nset=top, instance=Part-1-1, generate
 5281,  5313,     1
*Elset, elset=top, instance=Part-1-1, generate
 5089,  5120,     1
*End Assembly
** 
** MATERIALS
** 
*Material, name=Material-1
*Elastic, type=ENGINEERING CONSTANTS
231000.,15000.,15000.,  0.21,  0.21,   0.3,15800.,15800.
 5800.,
** 
** BOUNDARY CONDITIONS
** 
** Name: BC-1 Type: Displacement/Rotation
*Boundary
top, 1, 1
top, 2, 2
** Name: BC-2 Type: Displacement/Rotation
*Boundary
bottom, 1, 1
bottom, 2, 2
** ----------------------------------------------------------------
** 
** STEP: Step-1
** 
*Step, name=Step-1, nlgeom=NO
*Static
1., 1., 1e-05, 1.
** 
** BOUNDARY CONDITIONS
** 
** Name: BC-3 Type: Displacement/Rotation
*Boundary
top, 2, 2, 0.1
** 
** OUTPUT REQUESTS
** 
*Restart, write, frequency=0
** 
** FIELD OUTPUT: F-Output-1
** 
*Output, field, variable=PRESELECT
** 
** HISTORY OUTPUT: H-Output-1
** 
*Output, history, variable=PRESELECT
*End Step
