*Heading
** Job name: Job-1 Model name: Model-1
** Generated by: Abaqus/CAE 2023
*Preprint, echo=NO, model=NO, history=NO, contact=NO
**
** PARTS
**
*Part, name=Part-1
*Node
      1,           0.,           0.
      2,  0.100000001,           0.
      3,  0.200000003,           0.
      4,  0.300000012,           0.
      5,  0.400000006,           0.
      6,          0.5,           0.
      7,  0.600000024,           0.
      8,  0.699999988,           0.
      9,  0.800000012,           0.
     10,  0.899999976,           0.
     11,           1.,           0.
     12,   1.10000002,           0.
     13,   1.20000005,           0.
     14,   1.29999995,           0.
     15,   1.39999998,           0.
     16,          1.5,           0.
     17,   1.60000002,           0.
     18,   1.70000005,           0.
     19,   1.79999995,           0.
     20,   1.89999998,           0.
** ... 2101 like lines cut
*Element, type=CPS4
   1,    1,    2,   23,   22
   2,    2,    3,   24,   23
   3,    3,    4,   25,   24
   4,    4,    5,   26,   25
   5,    5,    6,   27,   26
   6,    6,    7,   28,   27
   7,    7,    8,   29,   28
   8,    8,    9,   30,   29
   9,    9,   10,   31,   30
  10,   10,   11,   32,   31
  11,   11,   12,   33,   32
  12,   12,   13,   34,   33
  13,   13,   14,   35,   34
  14,   14,   15,   36,   35
  15,   15,   16,   37,   36
  16,   16,   17,   38,   37
  17,   17,   18,   39,   38
  18,   18,   19,   40,   39
  19,   19,   20,   41,   40
  20,   20,   21,   42,   41
** ... 1980 like lines cut
*Nset, nset=Set-2, generate
    1,  2121,     1
*Elset, elset=Set-2, generate
    1,  2000,     1
*Elset, elset=away, generate
   41,  1960,     1
*Orientation, name=Ori-1
1., 0., 0., 0., 1., 0.
3, 45.
** Section: Section-1
*Solid Section, elset=Set-2, orientation=Ori-1, material=Material-1
0.001,
*End Part
**  
**
** ASSEMBLY
**
*Assembly, name=Assembly
**  
*Instance, name=Part-1-1, part=Part-1
*End Instance
**  
*Nset, nset=Set-1, instance=Part-1-1, generate
 2101,  2121,     1
*Elset, elset=Set-1, instance=Part-1-1, generate
 1981,  2000,     1
*Nset, nset=Set-2, instance=Part-1-1, generate
  1,  21,   1
*Elset, elset=Set-2, instance=Part-1-1, generate
  1,  20,   1
*End Assembly
** 
** MATERIALS
** 
*Material, name=Material-1
*Elastic, type=ENGINEERING CONSTANTS
231000.,15000.,15000.,   0.2,   0.2,  0.35,10000.,10000.
 5000.,
** 
** BOUNDARY CONDITIONS
** 
** Name: BC-2 Type: Symmetry/Antisymmetry/Encastre
*Boundary
Set-2, ENCASTRE
** Name: BC-4 Type: Displacement/Rotation
*Boundary
Set-1, 1, 1
Set-1, 6, 6
** ----------------------------------------------------------------
** 
** STEP: Step-1
** 
*Step, name=Step-1, nlgeom=NO
*Static
1., 1., 1e-05, 1.
** 
** BOUNDARY CONDITIONS
** 
** Name: BC-3 Type: Displacement/Rotation
*Boundary
Set-1, 2, 2, 0.1
** 
** OUTPUT REQUESTS
** 
*Restart, write, frequency=0
** 
** FIELD OUTPUT: F-Output-1
** 
*Output, field, variable=PRESELECT
** 
** HISTORY OUTPUT: H-Output-1
** 
*Output, history, variable=PRESELECT
*End Step
