*Heading
** Job name: proj_mesh4_90 Model name: Model-1
** Generated by: Abaqus/CAE 2023
*Preprint, echo=NO, model=NO, history=NO, contact=NO
**
** PARTS
**
*Part, name=Part-1
*Node
      1,           0.,           0.
      2,         0.25,           0.
      3,          0.5,           0.
      4,         0.75,           0.
      5,           1.,           0.
      6,         1.25,           0.
      7,          1.5,           0.
      8,         1.75,           0.
      9,           2.,           0.
     10,           0.,         0.25
     11,         0.25,         0.25
     12,          0.5,         0.25
     13,         0.75,         0.25
     14,           1.,         0.25
     15,         1.25,         0.25
     16,          1.5,         0.25
     17,         1.75,         0.25
     18,           2.,         0.25
     19,           0.,          0.5
     20,         0.25,          0.5
** ... 349 like lines cut
*Element, type=CPS4
  1,   1,   2,  11,  10
  2,   2,   3,  12,  11
  3,   3,   4,  13,  12
  4,   4,   5,  14,  13
  5,   5,   6,  15,  14
  6,   6,   7,  16,  15
  7,   7,   8,  17,  16
  8,   8,   9,  18,  17
  9,  10,  11,  20,  19
 10,  11,  12,  21,  20
 11,  12,  13,  22,  21
 12,  13,  14,  23,  22
 13,  14,  15,  24,  23
 14,  15,  16,  25,  24
 15,  16,  17,  26,  25
 16,  17,  18,  27,  26
 17,  19,  20,  29,  28
 18,  20,  21,  30,  29
 19,  21,  22,  31,  30
 20,  22,  23,  32,  31
** ... 300 like lines cut
*Nset, nset=all, generate
   1,  369,    1
*Elset, elset=all, generate
   1,  320,    1
*Elset, elset=gage, generate
  65,  256,    1
*Orientation, name=Ori-20
1., 0., 0., 0., 1., 0.
3, 90.
** Section: Section-1
*Solid Section, elset=all, orientation=Ori-20, material=Material-1
0.001,
*End Part
**  
**
** ASSEMBLY
**
*Assembly, name=Assembly
**  
*Instance, name=Part-1-1, part=Part-1
*End Instance
**  
*Nset, nset=bottom, instance=Part-1-1, generate
 1,  9,  1
*Elset, elset=bottom, instance=Part-1-1, generate
 1,  8,  1
*Nset, nset=top, instance=Part-1-1, generate
 361,  369,    1
*Elset, elset=top, instance=Part-1-1, generate
 313,  320,    1
*End Assembly
** 
** MATERIALS
** 
*Material, name=Material-1
*Elastic, type=ENGINEERING CONSTANTS
231000.,15000.,15000.,  0.21,  0.21,   0.3,15800.,15800.
 5800.,
** 
** BOUNDARY CONDITIONS
** 
** Name: BC-1 Type: Displacement/Rotation
*Boundary
top, 1, 1
top, 2, 2
** Name: BC-2 Type: Displacement/Rotation
*Boundary
bottom, 1, 1
bottom, 2, 2
** ----------------------------------------------------------------
** 
** STEP: Step-1
** 
*Step, name=Step-1, nlgeom=NO
*Static
1., 1., 1e-05, 1.
** 
** BOUNDARY CONDITIONS
** 
** Name: BC-3 Type: Displacement/Rotation
*Boundary
top, 2, 2, 0.1
** 
** OUTPUT REQUESTS
** 
*Restart, write, frequency=0
** 
** FIELD OUTPUT: F-Output-1
** 
*Output, field, variable=PRESELECT
** 
** HISTORY OUTPUT: H-Output-1
** 
*Output, history, variable=PRESELECT
*End Step
