*Heading
** Job name: proj_mesh3_90 Model name: Model-1
** Generated by: Abaqus/CAE 2023
*Preprint, echo=NO, model=NO, history=NO, contact=NO
**
** PARTS
**
*Part, name=Part-1
*Node
      1,           0.,           0.
      2,          0.5,           0.
      3,           1.,           0.
      4,          1.5,           0.
      5,           2.,           0.
      6,           0.,          0.5
      7,          0.5,          0.5
      8,           1.,          0.5
      9,          1.5,          0.5
     10,           2.,          0.5
     11,           0.,           1.
     12,          0.5,           1.
     13,           1.,           1.
     14,          1.5,           1.
     15,           2.,           1.
     16,           0.,          1.5
     17,          0.5,          1.5
     18,           1.,          1.5
     19,          1.5,          1.5
     20,           2.,          1.5
** ... 269 like lines cut
*Element, type=CPS8
 1,   1,   2,   7,   6, 106, 107, 108, 109
 2,   2,   3,   8,   7, 110, 111, 112, 107
 3,   3,   4,   9,   8, 113, 114, 115, 111
 4,   4,   5,  10,   9, 116, 117, 118, 114
 5,   6,   7,  12,  11, 108, 119, 120, 121
 6,   7,   8,  13,  12, 112, 122, 123, 119
 7,   8,   9,  14,  13, 115, 124, 125, 122
 8,   9,  10,  15,  14, 118, 126, 127, 124
 9,  11,  12,  17,  16, 120, 128, 129, 130
10,  12,  13,  18,  17, 123, 131, 132, 128
11,  13,  14,  19,  18, 125, 133, 134, 131
12,  14,  15,  20,  19, 127, 135, 136, 133
13,  16,  17,  22,  21, 129, 137, 138, 139
14,  17,  18,  23,  22, 132, 140, 141, 137
15,  18,  19,  24,  23, 134, 142, 143, 140
16,  19,  20,  25,  24, 136, 144, 145, 142
17,  21,  22,  27,  26, 138, 146, 147, 148
18,  22,  23,  28,  27, 141, 149, 150, 146
19,  23,  24,  29,  28, 143, 151, 152, 149
20,  24,  25,  30,  29, 145, 153, 154, 151
** ... 60 like lines cut
*Nset, nset=all, generate
   1,  289,    1
*Elset, elset=all, generate
  1,  80,   1
*Nset, nset=gage
  21,  22,  23,  24,  25,  26,  27,  28,  29,  30,  31,  32,  33,  34,  35,  36
  37,  38,  39,  40,  41,  42,  43,  44,  45,  46,  47,  48,  49,  50,  51,  52
  53,  54,  55,  56,  57,  58,  59,  60,  61,  62,  63,  64,  65,  66,  67,  68
  69,  70,  71,  72,  73,  74,  75,  76,  77,  78,  79,  80,  81,  82,  83,  84
  85, 138, 141, 143, 145, 146, 147, 148, 149, 150, 151, 152, 153, 154, 155, 156
 157, 158, 159, 160, 161, 162, 163, 164, 165, 166, 167, 168, 169, 170, 171, 172
 173, 174, 175, 176, 177, 178, 179, 180, 181, 182, 183, 184, 185, 186, 187, 188
 189, 190, 191, 192, 193, 194, 195, 196, 197, 198, 199, 200, 201, 202, 203, 204
 205, 206, 207, 208, 209, 210, 211, 212, 213, 214, 215, 216, 217, 218, 219, 220
 221, 222, 223, 224, 225, 226, 227, 228, 229, 230, 231, 232, 233, 234, 235, 236
 237, 238, 239, 240, 241, 242, 243, 244, 245, 246, 247, 248, 249, 250, 251, 252
 253,
*Orientation, name=Ori-15
1., 0., 0., 0., 1., 0.
3, 90.
** Section: Section-1
*Solid Section, elset=all, orientation=Ori-15, material=Material-1
0.001,
*End Part
**  
**
** ASSEMBLY
**
*Assembly, name=Assembly
**  
*Instance, name=Part-1-1, part=Part-1
*End Instance
**  
*Nset, nset=bottom, instance=Part-1-1
   1,   2,   3,   4,   5, 106, 110, 113, 116
*Elset, elset=bottom, instance=Part-1-1, generate
 1,  4,  1
*Nset, nset=top, instance=Part-1-1
 101, 102, 103, 104, 105, 282, 285, 287, 289
*Elset, elset=top, instance=Part-1-1, generate
 77,  80,   1
*End Assembly
** 
** MATERIALS
** 
*Material, name=Material-1
*Elastic, type=ENGINEERING CONSTANTS
 0.21,   0.21, 15000.,  5800., 15000.,231000.,    0.3, 15800.
 15800.,
** 
** BOUNDARY CONDITIONS
** 
** Name: BC-1 Type: Displacement/Rotation
*Boundary
top, 1, 1
top, 2, 2
** Name: BC-2 Type: Displacement/Rotation
*Boundary
bottom, 1, 1
bottom, 2, 2
** ----------------------------------------------------------------
** 
** STEP: Step-1
** 
*Step, name=Step-1, nlgeom=NO
*Static
1., 1., 1e-05, 1.
** 
** BOUNDARY CONDITIONS
** 
** Name: BC-3 Type: Displacement/Rotation
*Boundary
top, 2, 2, 0.1
** 
** OUTPUT REQUESTS
** 
*Restart, write, frequency=0
** 
** FIELD OUTPUT: F-Output-1
** 
*Output, field, variable=PRESELECT
** 
** HISTORY OUTPUT: H-Output-1
** 
*Output, history, variable=PRESELECT
*End Step
