*Heading
** Job name: proj_mesh5_45 Model name: Model-1
** Generated by: Abaqus/CAE 2023
*Preprint, echo=NO, model=NO, history=NO, contact=NO
**
** PARTS
**
*Part, name=Part-1
*Node
      1,           0.,           0.
      2,        0.125,           0.
      3,         0.25,           0.
      4,        0.375,           0.
      5,          0.5,           0.
      6,        0.625,           0.
      7,         0.75,           0.
      8,        0.875,           0.
      9,           1.,           0.
     10,        1.125,           0.
     11,         1.25,           0.
     12,        1.375,           0.
     13,          1.5,           0.
     14,        1.625,           0.
     15,         1.75,           0.
     16,        1.875,           0.
     17,           2.,           0.
     18,           0.,        0.125
     19,        0.125,        0.125
     20,         0.25,        0.125
** ... 4013 like lines cut
*Element, type=CPS8
   1,    1,    2,   19,   18, 1378, 1379, 1380, 1381
   2,    2,    3,   20,   19, 1382, 1383, 1384, 1379
   3,    3,    4,   21,   20, 1385, 1386, 1387, 1383
   4,    4,    5,   22,   21, 1388, 1389, 1390, 1386
   5,    5,    6,   23,   22, 1391, 1392, 1393, 1389
   6,    6,    7,   24,   23, 1394, 1395, 1396, 1392
   7,    7,    8,   25,   24, 1397, 1398, 1399, 1395
   8,    8,    9,   26,   25, 1400, 1401, 1402, 1398
   9,    9,   10,   27,   26, 1403, 1404, 1405, 1401
  10,   10,   11,   28,   27, 1406, 1407, 1408, 1404
  11,   11,   12,   29,   28, 1409, 1410, 1411, 1407
  12,   12,   13,   30,   29, 1412, 1413, 1414, 1410
  13,   13,   14,   31,   30, 1415, 1416, 1417, 1413
  14,   14,   15,   32,   31, 1418, 1419, 1420, 1416
  15,   15,   16,   33,   32, 1421, 1422, 1423, 1419
  16,   16,   17,   34,   33, 1424, 1425, 1426, 1422
  17,   18,   19,   36,   35, 1380, 1427, 1428, 1429
  18,   19,   20,   37,   36, 1384, 1430, 1431, 1427
  19,   20,   21,   38,   37, 1387, 1432, 1433, 1430
  20,   21,   22,   39,   38, 1390, 1434, 1435, 1432
** ... 1260 like lines cut
*Nset, nset=all, generate
    1,  4033,     1
*Elset, elset=all, generate
    1,  1280,     1
*Nset, nset=gage
  273,  274,  275,  276,  277,  278,  279,  280,  281,  282,  283,  284,  285,  286,  287,  288
  289,  290,  291,  292,  293,  294,  295,  296,  297,  298,  299,  300,  301,  302,  303,  304
  305,  306,  307,  308,  309,  310,  311,  312,  313,  314,  315,  316,  317,  318,  319,  320
  321,  322,  323,  324,  325,  326,  327,  328,  329,  330,  331,  332,  333,  334,  335,  336
  337,  338,  339,  340,  341,  342,  343,  344,  345,  346,  347,  348,  349,  350,  351,  352
  353,  354,  355,  356,  357,  358,  359,  360,  361,  362,  363,  364,  365,  366,  367,  368
  369,  370,  371,  372,  373,  374,  375,  376,  377,  378,  379,  380,  381,  382,  383,  384
  385,  386,  387,  388,  389,  390,  391,  392,  393,  394,  395,  396,  397,  398,  399,  400
  401,  402,  403,  404,  405,  406,  407,  408,  409,  410,  411,  412,  413,  414,  415,  416
  417,  418,  419,  420,  421,  422,  423,  424,  425,  426,  427,  428,  429,  430,  431,  432
  433,  434,  435,  436,  437,  438,  439,  440,  441,  442,  443,  444,  445,  446,  447,  448
  449,  450,  451,  452,  453,  454,  455,  456,  457,  458,  459,  460,  461,  462,  463,  464
  465,  466,  467,  468,  469,  470,  471,  472,  473,  474,  475,  476,  477,  478,  479,  480
  481,  482,  483,  484,  485,  486,  487,  488,  489,  490,  491,  492,  493,  494,  495,  496
  497,  498,  499,  500,  501,  502,  503,  504,  505,  506,  507,  508,  509,  510,  511,  512
  513,  514,  515,  516,  517,  518,  519,  520,  521,  522,  523,  524,  525,  526,  527,  528
  529,  530,  531,  532,  533,  534,  535,  536,  537,  538,  539,  540,  541,  542,  543,  544
  545,  546,  547,  548,  549,  550,  551,  552,  553,  554,  555,  556,  557,  558,  559,  560
  561,  562,  563,  564,  565,  566,  567,  568,  569,  570,  571,  572,  573,  574,  575,  576
  577,  578,  579,  580,  581,  582,  583,  584,  585,  586,  587,  588,  589,  590,  591,  592
** ... 133 like lines cut
*Orientation, name=Ori-23
1., 0., 0., 0., 1., 0.
3, 45.
** Section: Section-1
*Solid Section, elset=all, orientation=Ori-23, material=Material-1
0.001,
*End Part
**  
**
** ASSEMBLY
**
*Assembly, name=Assembly
**  
*Instance, name=Part-1-1, part=Part-1
*End Instance
**  
*Nset, nset=bottom, instance=Part-1-1
    1,    2,    3,    4,    5,    6,    7,    8,    9,   10,   11,   12,   13,   14,   15,   16
   17, 1378, 1382, 1385, 1388, 1391, 1394, 1397, 1400, 1403, 1406, 1409, 1412, 1415, 1418, 1421
 1424,
*Elset, elset=bottom, instance=Part-1-1, generate
  1,  16,   1
*Nset, nset=top, instance=Part-1-1
 1361, 1362, 1363, 1364, 1365, 1366, 1367, 1368, 1369, 1370, 1371, 1372, 1373, 1374, 1375, 1376
 1377, 4002, 4005, 4007, 4009, 4011, 4013, 4015, 4017, 4019, 4021, 4023, 4025, 4027, 4029, 4031
 4033,
*Elset, elset=top, instance=Part-1-1, generate
 1265,  1280,     1
*End Assembly
** 
** MATERIALS
** 
*Material, name=Material-1
*Elastic, type=ENGINEERING CONSTANTS
 0.21,   0.21, 15000.,  5800., 15000.,231000.,    0.3, 15800.
 15800.,
** 
** BOUNDARY CONDITIONS
** 
** Name: BC-1 Type: Displacement/Rotation
*Boundary
top, 1, 1
top, 2, 2
** Name: BC-2 Type: Displacement/Rotation
*Boundary
bottom, 1, 1
bottom, 2, 2
** ----------------------------------------------------------------
** 
** STEP: Step-1
** 
*Step, name=Step-1, nlgeom=NO
*Static
1., 1., 1e-05, 1.
** 
** BOUNDARY CONDITIONS
** 
** Name: BC-3 Type: Displacement/Rotation
*Boundary
top, 2, 2, 0.1
** 
** OUTPUT REQUESTS
** 
*Restart, write, frequency=0
** 
** FIELD OUTPUT: F-Output-1
** 
*Output, field, variable=PRESELECT
** 
** HISTORY OUTPUT: H-Output-1
** 
*Output, history, variable=PRESELECT
*End Step
